Version 4
SHEET 1 2240 800
WIRE 608 -160 480 -160
WIRE 32 -112 16 -112
WIRE 176 -112 112 -112
WIRE 336 -112 256 -112
WIRE 368 -112 336 -112
WIRE 480 -112 480 -160
WIRE 480 -112 432 -112
WIRE 576 -112 480 -112
WIRE 608 -112 608 -160
WIRE 640 -112 608 -112
WIRE 720 -112 704 -112
WIRE 832 -112 720 -112
WIRE 336 -96 336 -112
WIRE 480 -96 480 -112
WIRE 576 -96 576 -112
WIRE 720 -96 720 -112
WIRE 832 -96 832 -112
WIRE 16 -16 16 -112
WIRE 336 -16 336 -32
WIRE 336 -16 16 -16
WIRE 480 -16 480 -32
WIRE 480 -16 336 -16
WIRE 576 -16 576 -32
WIRE 576 -16 544 -16
WIRE 720 -16 720 -32
WIRE 720 -16 576 -16
WIRE 736 -16 720 -16
WIRE 832 -16 832 -32
WIRE 832 -16 800 -16
WIRE 912 -16 832 -16
WIRE 16 80 16 -16
WIRE 64 80 16 80
WIRE 400 80 352 80
WIRE 912 80 912 -16
WIRE 912 80 400 80
WIRE 16 128 16 80
WIRE -48 176 -64 176
WIRE 32 176 16 176
WIRE 64 176 32 176
WIRE 368 176 352 176
WIRE 464 176 448 176
WIRE 512 176 464 176
WIRE 544 176 512 176
WIRE 608 176 544 176
WIRE 32 192 32 176
WIRE 608 192 608 176
WIRE 512 208 512 176
WIRE 32 272 32 256
WIRE 64 272 32 272
WIRE 464 272 464 176
WIRE 464 272 352 272
WIRE 512 304 512 272
WIRE 608 304 608 272
WIRE -64 368 -64 176
WIRE -64 368 -96 368
WIRE 64 368 0 368
WIRE 384 368 352 368
WIRE 208 384 208 368
WIRE 64 464 48 464
WIRE 384 464 352 464
WIRE 208 528 208 512
WIRE 384 560 384 464
FLAG -96 368 0
FLAG 208 384 0
FLAG 512 304 0
FLAG 608 304 0
FLAG 208 528 0
FLAG 48 464 0
FLAG 544 176 out
FLAG 400 80 input
FLAG 384 560 0
FLAG 16 128 0
SYMBOL PowerProducts\\LTC3588-1 208 272 R0
SYMATTR InstName U1
SYMBOL ind 352 192 R270
WINDOW 0 32 56 VTop 0
WINDOW 3 5 56 VBottom 0
SYMATTR InstName L1
SYMATTR Value 22µ
SYMATTR SpiceLine Ipk=0.75 Rser=0.19
SYMBOL cap 496 208 R0
SYMATTR InstName C2
SYMATTR Value 100µ
SYMATTR SpiceLine V=6.3V
SYMBOL res 592 176 R0
SYMATTR InstName Rload
SYMATTR Value 500K
SYMBOL voltage 128 -112 R90
WINDOW 0 -32 56 VBottom 0
WINDOW 3 32 56 VTop 0
WINDOW 123 74 56 VTop 0
WINDOW 39 53 56 VTop 0
SYMATTR InstName V1
SYMATTR Value SINE(0 1 230000)
SYMATTR SpiceLine Rser=100 Cpar=530p
SYMBOL cap 16 192 R0
SYMATTR InstName C3
SYMATTR Value 1µ
SYMBOL cap 16 160 R90
WINDOW 0 0 32 VBottom 2
WINDOW 3 32 32 VTop 2
SYMATTR InstName C1
SYMATTR Value 10µ
SYMBOL cap 0 352 R90
WINDOW 0 0 32 VBottom 2
WINDOW 3 32 32 VTop 2
SYMATTR InstName C4
SYMATTR Value 4.7µ
SYMBOL cap 432 -128 R90
WINDOW 0 0 32 VBottom 2
WINDOW 3 32 32 VTop 2
SYMATTR InstName C5
SYMATTR Value 1µ
SYMBOL cap 544 -32 R90
WINDOW 0 0 32 VBottom 2
WINDOW 3 32 32 VTop 2
SYMATTR InstName C6
SYMATTR Value 1µ
SYMBOL diode 560 -96 R0
SYMATTR InstName D1
SYMBOL diode 496 -32 R180
WINDOW 0 24 64 Left 2
WINDOW 3 24 0 Left 2
SYMATTR InstName D2
SYMBOL cap 704 -128 R90
WINDOW 0 0 32 VBottom 2
WINDOW 3 32 32 VTop 2
SYMATTR InstName C7
SYMATTR Value 1µ
SYMBOL cap 800 -32 R90
WINDOW 0 0 32 VBottom 2
WINDOW 3 32 32 VTop 2
SYMATTR InstName C8
SYMATTR Value 1µ
SYMBOL diode 816 -96 R0
SYMATTR InstName D3
SYMBOL diode 736 -32 R180
WINDOW 0 24 64 Left 2
WINDOW 3 24 0 Left 2
SYMATTR InstName D4
SYMBOL cap 320 -96 R0
SYMATTR InstName C9
SYMATTR Value 310p
SYMBOL ind 160 -96 R270
WINDOW 0 32 56 VTop 2
WINDOW 3 5 56 VBottom 2
SYMATTR InstName L2
SYMATTR Value 1.5m
TEXT 560 368 Left 0 !.tran 10 startup
TEXT -320 560 Left 0 ;Notes:\n  If the simulation model is not found please update with the "Sync Release" command from the "Tools" menu.\n  It remains the customer's responsibility to verify proper and reliable operation in the actual application.\n  Component substitution and printed circuit board layout may significantly affect circuit performance or reliability.\n  Contact your local sales representative for assistance. This circuit is distributed to customers only for use with LTC parts.\n  Copyright © 2010 Linear Technology Inc. All rights reserved.
TEXT 216 -296 Bottom 0 ;LTC3588-1,  Piezoelectric Energy Harvesting Power Supply with Simulated Remote Sensor/Transmitter\nInput: 24V 41Hz  Rs=119K     Output: 3.3V with 30mA 10msec Pulse Load
TEXT 224 -136 Bottom 0 ;Piezoelectric Device\nMIDE V22BL\n1.4 Gpk Force at 41Hz\nwith Tip Mass of 1 gm.
